LTspice 26.0.1 for Windows
Circuit: C:\Github\EMG_BCI\EMG_BCI.net
Start Time: Tue May  5 22:10:20 2026
solver = Normal
Maximum thread count: 16
tnom = 27
temp = 27
method = modified trap
gmin = 1e-06
abstol = 1e-06
chgtol = 1e-09
Direct Newton iteration failed to find operating point.
Starting Gmin stepping
Gmin stepping failed to find operating point. Use".option gminsteps=0" to skip all Gmin stepping.
Starting source stepping with srcstepmethod=0
Could not converge to DC with sources off!
Starting source stepping with srcstepmethod=1
Source stepping failed to find operating point. Use ".options srcsteps=0" to skip all source stepping.
Starting Gmin stepping level 2
Gmin stepping level 2 failed to find operating point. Use".option gminsteps=0" to skip all Gmin stepping.
Starting source stepping with srcstepmethod=1, level 2
Could not converge to DC with sources off!
Starting source stepping with srcstepmethod=0, level 2
Source stepping level 2 failed to find operating point. Use ".options srcsteps=0" to skip all source stepping.
Pseudo transient terminated at 100.001 s, solution accepted ready or not!
Total elapsed time: 39.629 seconds.

Files loaded:
C:\Github\EMG_BCI\EMG_BCI.net
C:\Users\willa\AppData\Local\LTspice\lib\cmp\standard.dio
C:\Users\willa\AppData\Local\LTspice\lib\sub\ADA4522-4.lib
C:\Users\willa\AppData\Local\LTspice\lib\sub\ADA4807-4.sub

