LTspice 26.0.1 for Windows
Circuit: C:\Github\EMG_BCI\EMG_BCI.net
Start Time: Mon May 18 18:06:50 2026
solver = Normal
Maximum thread count: 16
tnom = 27
temp = 27
method = modified trap
gmin = 1e-06
abstol = 1e-06
chgtol = 1e-09
Direct Newton iteration failed to find operating point.
Starting Gmin stepping
Gmin stepping succeeded in finding the operating point.

Total elapsed time: 1.869 seconds.

Files loaded:
C:\Github\EMG_BCI\EMG_BCI.net
C:\Users\willa\AppData\Local\LTspice\lib\cmp\standard.dio
C:\Users\willa\AppData\Local\LTspice\lib\sub\ADA4522-4.lib
C:\Users\willa\AppData\Local\LTspice\lib\sub\ADA4807-4.sub

